/*--------------------------------*- C++ -*----------------------------------*\
| =========                 |                                                 |
| \\      /  F ield         | OpenFOAM: The Open Source CFD Toolbox           |
|  \\    /   O peration     | Version:  2.2.2                                 |
|   \\  /    A nd           | Web:      www.OpenFOAM.org                      |
|    \\/     M anipulation  |                                                 |
\*---------------------------------------------------------------------------*/
FoamFile
{
    version     2.0;
    format      binary;
    class       polyBoundaryMesh;
    location    "constant/polyMesh";
    object      boundary;
}
// * * * * * * * * * * * * * * * * * * * * * * * * * * * * * * * * * * * * * //

72
(
    frontAndBack
    {
        type            patch;
        nFaces          3000;
        startFace       16045701;
    }
    inlet
    {
        type            patch;
        nFaces          600;
        startFace       16048701;
    }
    outlet
    {
        type            patch;
        nFaces          600;
        startFace       16049301;
    }
    lowerWall
    {
        type            wall;
        nFaces          33628;
        startFace       16049901;
    }
    upperWall
    {
        type            patch;
        nFaces          1440;
        startFace       16083529;
    }
    motorBike_frt-fairing:001%1
    {
        type            wall;
        inGroups        1(motorBikeGroup);
        nFaces          48988;
        startFace       16084969;
    }
    motorBike_windshield:002%2
    {
        type            wall;
        inGroups        1(motorBikeGroup);
        nFaces          348;
        startFace       16133957;
    }
    motorBike_rr-wh-rim:005%5
    {
        type            wall;
        inGroups        1(motorBikeGroup);
        nFaces          1304;
        startFace       16134305;
    }
    motorBike_rr-wh-rim:010%10
    {
        type            wall;
        inGroups        1(motorBikeGroup);
        nFaces          3308;
        startFace       16135609;
    }
    motorBike_fr-wh-rim:011%11
    {
        type            wall;
        inGroups        1(motorBikeGroup);
        nFaces          4216;
        startFace       16138917;
    }
    motorBike_fr-wh-brake-disk:012%12
    {
        type            wall;
        inGroups        1(motorBikeGroup);
        nFaces          560;
        startFace       16143133;
    }
    motorBike_frame:016-shadow%13
    {
        type            wall;
        inGroups        1(motorBikeGroup);
        nFaces          956;
        startFace       16143693;
    }
    motorBike_rear-susp:014%14
    {
        type            wall;
        inGroups        1(motorBikeGroup);
        nFaces          8148;
        startFace       16144649;
    }
    motorBike_rear-susp:014-shadow%15
    {
        type            wall;
        inGroups        1(motorBikeGroup);
        nFaces          4973;
        startFace       16152797;
    }
    motorBike_frame:016%16
    {
        type            wall;
        inGroups        1(motorBikeGroup);
        nFaces          558;
        startFace       16157770;
    }
    motorBike_rr-wh-rim:005-shadow%17
    {
        type            wall;
        inGroups        1(motorBikeGroup);
        nFaces          732;
        startFace       16158328;
    }
    motorBike_rr-wh-chain-hub:022%22
    {
        type            wall;
        inGroups        1(motorBikeGroup);
        nFaces          1055;
        startFace       16159060;
    }
    motorBike_rearseat%24
    {
        type            wall;
        inGroups        1(motorBikeGroup);
        nFaces          2639;
        startFace       16160115;
    }
    motorBike_frt-fairing%25
    {
        type            wall;
        inGroups        1(motorBikeGroup);
        nFaces          4487;
        startFace       16162754;
    }
    motorBike_windshield%26
    {
        type            wall;
        inGroups        1(motorBikeGroup);
        nFaces          3325;
        startFace       16167241;
    }
    motorBike_headlights%27
    {
        type            wall;
        inGroups        1(motorBikeGroup);
        nFaces          1002;
        startFace       16170566;
    }
    motorBike_driversseat%28
    {
        type            wall;
        inGroups        1(motorBikeGroup);
        nFaces          3541;
        startFace       16171568;
    }
    motorBike_rear-body%29
    {
        type            wall;
        inGroups        1(motorBikeGroup);
        nFaces          13732;
        startFace       16175109;
    }
    motorBike_fuel-tank%30
    {
        type            wall;
        inGroups        1(motorBikeGroup);
        nFaces          5406;
        startFace       16188841;
    }
    motorBike_exhaust%31
    {
        type            wall;
        inGroups        1(motorBikeGroup);
        nFaces          16937;
        startFace       16194247;
    }
    motorBike_rr-wh-rim%32
    {
        type            wall;
        inGroups        1(motorBikeGroup);
        nFaces          8483;
        startFace       16211184;
    }
    motorBike_fr-mud-guard%33
    {
        type            wall;
        inGroups        1(motorBikeGroup);
        nFaces          7363;
        startFace       16219667;
    }
    motorBike_fr-wh-rim%34
    {
        type            wall;
        inGroups        1(motorBikeGroup);
        nFaces          4896;
        startFace       16227030;
    }
    motorBike_fr-wh-brake-disk%35
    {
        type            wall;
        inGroups        1(motorBikeGroup);
        nFaces          4205;
        startFace       16231926;
    }
    motorBike_fr-brake-caliper%36
    {
        type            wall;
        inGroups        1(motorBikeGroup);
        nFaces          1323;
        startFace       16236131;
    }
    motorBike_fr-wh-tyre%37
    {
        type            wall;
        inGroups        1(motorBikeGroup);
        nFaces          8706;
        startFace       16237454;
    }
    motorBike_hbars%38
    {
        type            wall;
        inGroups        1(motorBikeGroup);
        nFaces          4488;
        startFace       16246160;
    }
    motorBike_fr-forks%39
    {
        type            wall;
        inGroups        1(motorBikeGroup);
        nFaces          8484;
        startFace       16250648;
    }
    motorBike_chain%40
    {
        type            wall;
        inGroups        1(motorBikeGroup);
        nFaces          4022;
        startFace       16259132;
    }
    motorBike_rr-wh-tyre%41
    {
        type            wall;
        inGroups        1(motorBikeGroup);
        nFaces          8300;
        startFace       16263154;
    }
    motorBike_square-dial%42
    {
        type            wall;
        inGroups        1(motorBikeGroup);
        nFaces          48;
        startFace       16271454;
    }
    motorBike_round-dial%43
    {
        type            wall;
        inGroups        1(motorBikeGroup);
        nFaces          105;
        startFace       16271502;
    }
    motorBike_dial-holder%44
    {
        type            wall;
        inGroups        1(motorBikeGroup);
        nFaces          750;
        startFace       16271607;
    }
    motorBike_rear-susp%45
    {
        type            wall;
        inGroups        1(motorBikeGroup);
        nFaces          15810;
        startFace       16272357;
    }
    motorBike_rear-brake-lights%46
    {
        type            wall;
        inGroups        1(motorBikeGroup);
        nFaces          461;
        startFace       16288167;
    }
    motorBike_rear-light-bracket%47
    {
        type            wall;
        inGroups        1(motorBikeGroup);
        nFaces          1335;
        startFace       16288628;
    }
    motorBike_frame%48
    {
        type            wall;
        inGroups        1(motorBikeGroup);
        nFaces          15041;
        startFace       16289963;
    }
    motorBike_rear-mud-guard%49
    {
        type            wall;
        inGroups        1(motorBikeGroup);
        nFaces          5807;
        startFace       16305004;
    }
    motorBike_rear-susp-spring-damp%50
    {
        type            wall;
        inGroups        1(motorBikeGroup);
        nFaces          962;
        startFace       16310811;
    }
    motorBike_fairing-inner-plate%51
    {
        type            wall;
        inGroups        1(motorBikeGroup);
        nFaces          3287;
        startFace       16311773;
    }
    motorBike_clutch-housing%52
    {
        type            wall;
        inGroups        1(motorBikeGroup);
        nFaces          6883;
        startFace       16315060;
    }
    motorBike_radiator%53
    {
        type            wall;
        inGroups        1(motorBikeGroup);
        nFaces          1105;
        startFace       16321943;
    }
    motorBike_water-pipe%54
    {
        type            wall;
        inGroups        1(motorBikeGroup);
        nFaces          694;
        startFace       16323048;
    }
    motorBike_water-pump%55
    {
        type            wall;
        inGroups        1(motorBikeGroup);
        nFaces          597;
        startFace       16323742;
    }
    motorBike_engine%56
    {
        type            wall;
        inGroups        1(motorBikeGroup);
        nFaces          16393;
        startFace       16324339;
    }
    motorBike_rear-shock-link%57
    {
        type            wall;
        inGroups        1(motorBikeGroup);
        nFaces          301;
        startFace       16340732;
    }
    motorBike_rear-brake-fluid-pot-bracket%58
    {
        type            wall;
        inGroups        1(motorBikeGroup);
        nFaces          384;
        startFace       16341033;
    }
    motorBike_rear-brake-fluid-pot%59
    {
        type            wall;
        inGroups        1(motorBikeGroup);
        nFaces          474;
        startFace       16341417;
    }
    motorBike_footpeg%60
    {
        type            wall;
        inGroups        1(motorBikeGroup);
        nFaces          794;
        startFace       16341891;
    }
    motorBike_rr-wh-chain-hub%61
    {
        type            wall;
        inGroups        1(motorBikeGroup);
        nFaces          1039;
        startFace       16342685;
    }
    motorBike_rear-brake-caliper%62
    {
        type            wall;
        inGroups        1(motorBikeGroup);
        nFaces          1289;
        startFace       16343724;
    }
    motorBike_rider-helmet%65
    {
        type            wall;
        inGroups        1(motorBikeGroup);
        nFaces          2839;
        startFace       16345013;
    }
    motorBike_rider-visor%66
    {
        type            wall;
        inGroups        1(motorBikeGroup);
        nFaces          442;
        startFace       16347852;
    }
    motorBike_rider-boots%67
    {
        type            wall;
        inGroups        1(motorBikeGroup);
        nFaces          5749;
        startFace       16348294;
    }
    motorBike_rider-gloves%68
    {
        type            wall;
        inGroups        1(motorBikeGroup);
        nFaces          2582;
        startFace       16354043;
    }
    motorBike_rider-body%69
    {
        type            wall;
        inGroups        1(motorBikeGroup);
        nFaces          24054;
        startFace       16356625;
    }
    motorBike_frame:0%70
    {
        type            wall;
        inGroups        1(motorBikeGroup);
        nFaces          294;
        startFace       16380679;
    }
    motorBike_frt-fairing:001-shadow%74
    {
        type            wall;
        inGroups        1(motorBikeGroup);
        nFaces          30871;
        startFace       16380973;
    }
    motorBike_windshield-shadow%75
    {
        type            wall;
        inGroups        1(motorBikeGroup);
        nFaces          2311;
        startFace       16411844;
    }
    motorBike_fr-mud-guard-shadow%81
    {
        type            wall;
        inGroups        1(motorBikeGroup);
        nFaces          4941;
        startFace       16414155;
    }
    motorBike_fr-wh-brake-disk-shadow%83
    {
        type            wall;
        inGroups        1(motorBikeGroup);
        nFaces          2207;
        startFace       16419096;
    }
    motorBike_rear-mud-guard-shadow%84
    {
        type            wall;
        inGroups        1(motorBikeGroup);
        nFaces          3603;
        startFace       16421303;
    }
    motorBike_rear-susp-spring-damp-shadow%85
    {
        type            wall;
        inGroups        1(motorBikeGroup);
        nFaces          639;
        startFace       16424906;
    }
    motorBike_radiator-shadow%86
    {
        type            wall;
        inGroups        1(motorBikeGroup);
        nFaces          660;
        startFace       16425545;
    }
    motorBike_rear-shock-link-shadow%87
    {
        type            wall;
        inGroups        1(motorBikeGroup);
        nFaces          199;
        startFace       16426205;
    }
    motorBike_rear-brake-fluid-pot-bracket-shadow%88
    {
        type            wall;
        inGroups        1(motorBikeGroup);
        nFaces          220;
        startFace       16426404;
    }
    motorBike_rr-wh-chain-hub-shadow%89
    {
        type            wall;
        inGroups        1(motorBikeGroup);
        nFaces          613;
        startFace       16426624;
    }
)

// ************************************************************************* //
